<HTML>
<TITLE>University of Wyoming - Radiosonde Data</TITLE>
<LINK REL="StyleSheet" HREF="/resources/select.css" TYPE="text/css">
<BODY BGCOLOR="white">
<H2>72451 DDC Dodge City(Awos) Observations at 12Z 10 May 2012</H2>
<PRE>
-----------------------------------------------------------------------------
   PRES   HGHT   TEMP   DWPT   RELH   MIXR   DRCT   SKNT   THTA   THTE   THTV
    hPa     m      C      C      %    g/kg    deg   knot     K      K      K 
-----------------------------------------------------------------------------
 1000.0     78                                                               
  925.0    755                                                               
  921.0    790   12.0    3.0     54   5.18    200      9  291.9  307.1  292.9
  892.0   1062   18.6    0.6     30   4.50    222     24  301.4  315.3  302.2
  877.0   1208   18.8    0.8     30   4.65    234     31  303.1  317.5  304.0
  875.9   1219   18.7    0.7     30   4.60    235     32  303.2  317.4  304.0
  853.0   1446   17.6   -2.4     25   3.77    235     31  304.3  316.1  305.0
  850.0   1476   17.4   -2.6     25   3.73    235     31  304.4  316.1  305.1
  814.8   1829   14.5   -4.0     28   3.51    230     22  305.0  316.1  305.6
  785.5   2134   11.9   -5.2     30   3.32    240     15  305.5  316.0  306.1
  757.3   2438    9.4   -6.4     32   3.14    250      7  305.9  316.0  306.5
  730.1   2743    6.9   -7.6     35   2.97    305      3  306.4  315.9  306.9
  703.9   3048    4.4   -8.8     38   2.80      5      1  306.8  315.9  307.3
  700.0   3094    4.0   -9.0     38   2.78     90      4  306.9  315.8  307.4
  689.0   3223    3.0  -11.0     35   2.41    118      4  307.2  315.0  307.6
  682.0   3305    3.0  -18.0     20   1.37    137      5  308.1  312.7  308.3
  668.0   3473    2.6  -26.4     10   0.67    174      5  309.4  311.8  309.6
  662.0   3546    3.0  -36.0      4   0.27    190      6  310.7  311.7  310.7
  652.9   3658    2.5  -35.2      4   0.29    215      6  311.3  312.4  311.4
  648.0   3719    2.2  -34.8      4   0.31    221      6  311.7  312.8  311.8
  604.9   4267   -2.2  -33.2      7   0.39    275      6  312.8  314.2  312.9
  578.0   4629   -5.1  -32.1     10   0.45    287      8  313.5  315.2  313.6
  559.9   4877   -6.8  -33.8     10   0.39    295     10  314.3  315.8  314.4
  531.0   5289   -9.7  -36.7      9   0.31    314      8  315.7  316.9  315.7
  517.0   5495  -11.5  -26.5     28   0.85    323      7  315.9  319.0  316.1
  506.0   5659  -12.9  -26.9     30   0.84    331      6  316.2  319.2  316.3
  500.0   5750  -13.1  -32.1     19   0.52    335      6  317.0  318.9  317.1
  498.0   5781  -13.3  -34.3     15   0.42    332      6  317.1  318.7  317.2
  480.0   6060  -14.9  -39.9     10   0.25    308      7  318.5  319.5  318.6
  477.7   6096  -15.2  -41.2      9   0.22    305      7  318.6  319.4  318.6
  453.0   6495  -18.3  -55.3      2   0.05    289      6  319.6  319.8  319.6
  400.0   7410  -25.7  -52.7      6   0.07    250      3  321.5  321.8  321.5
  388.2   7620  -27.5  -53.7      6   0.07    235      4  321.9  322.1  321.9
  320.0   8981  -39.3  -60.3      9   0.04    208      3  323.8  324.0  323.8
  312.4   9144  -40.5  -60.7     10   0.03    205      3  324.4  324.6  324.4
  300.0   9420  -42.5  -61.5     11   0.03    140      4  325.4  325.5  325.4
  250.0  10630  -52.1  -66.1     17   0.02    100      7  328.5  328.6  328.5
  225.0  11300  -57.7  -69.7     20   0.01    102     11  329.9  330.0  329.9
  200.0  12030  -62.7  -73.7     21   0.01    105     16  333.3  333.4  333.3
  195.0  12186  -63.9  -74.9     21   0.01    111     14  333.8  333.9  333.8
  183.0  12574  -65.5  -75.5     24   0.01    125      9  337.3  337.4  337.3
  178.0  12743  -64.5  -74.5     24   0.01    143      9  341.6  341.7  341.6
  169.0  13059  -65.9  -75.9     24   0.01    177     10  344.4  344.5  344.4
  157.0  13509  -64.1  -75.1     21   0.01    225     11  354.8  354.9  354.8
  152.0  13708  -61.7  -72.7     22   0.01    246     11  362.2  362.3  362.2
  150.0  13790  -62.1  -73.1     22   0.01    255     11  362.9  363.0  362.9
  149.0  13831  -62.3  -73.3     22   0.01    255     11  363.2  363.3  363.2
  146.0  13957  -61.3  -72.3     22   0.01    256     12  367.1  367.2  367.1
  134.0  14489  -61.7  -73.7     19   0.01    257     14  375.5  375.6  375.5
  119.0  15229  -59.5  -71.5     20   0.02    260     18  392.5  392.6  392.5
  118.8  15240  -59.5  -71.5     20   0.02    260     18  392.7  392.8  392.7
  111.0  15664  -60.1  -72.1     19   0.02    260     19  399.2  399.4  399.3
  110.0  15720  -60.3  -72.3     19   0.02    260     19  399.9  400.0  399.9
  100.0  16310  -63.7  -74.7     21   0.02    260     20  404.4  404.5  404.4
   93.2  16744  -60.7  -72.7     19   0.02    266     21  418.5  418.6  418.5
   80.1  17678  -62.3  -74.3     19   0.02    280     23  433.7  433.8  433.7
   76.2  17983  -62.8  -74.8     18   0.02    310     11  438.8  438.9  438.8
   72.6  18288  -63.4  -75.4     18   0.02    300      7  443.9  444.0  443.9
   71.6  18371  -63.5  -75.5     18   0.02    287      6  445.3  445.4  445.3
   70.0  18510  -63.1  -75.1     18   0.02    265      5  449.1  449.2  449.1
   56.0  19883  -62.9  -74.9     18   0.03    209      2  479.1  479.2  479.1
   53.9  20117  -61.1  -74.1     16   0.03    200      1  488.3  488.6  488.4
   50.0  20590  -57.5  -72.5     13   0.04    345      5  507.5  507.9  507.6
   49.0  20718  -56.9  -71.9     13   0.05     55     10  511.9  512.2  511.9
   48.9  20726  -56.9  -71.9     13   0.05     60     10  512.1  512.5  512.1
   44.5  21336  -56.3  -71.9     12   0.05      0      0  527.9  528.3  527.9
   42.1  21681  -55.9  -71.9     12   0.06      0      0  537.1  537.5  537.1
   38.5  22250  -57.3  -73.3     11   0.05      0      0  547.5  547.9  547.6
   37.9  22347  -57.5  -73.5     11   0.05      1      2  549.4  549.7  549.4
   35.8  22710  -54.5  -72.5      9   0.06      4     11  566.1  566.6  566.2
   35.0  22860  -54.7  -72.7      9   0.06      5     15  569.4  569.9  569.4
   33.3  23165  -55.1  -73.2      9   0.06      5     12  576.1  576.5  576.1
   32.1  23407  -55.5  -73.5      9   0.06     33     14  581.4  581.9  581.4
   31.8  23470  -55.2  -73.5      9   0.06     40     14  583.7  584.2  583.8
   30.3  23774  -54.0  -73.7      7   0.06    120     11  595.1  595.6  595.2
   30.0  23840  -53.7  -73.7      7   0.06    105     10  597.6  598.1  597.7
   27.6  24384  -52.3  -75.8      4   0.05    190      3  615.9  616.4  615.9
   20.8  26222  -47.7  -82.7      1   0.02     36      4  681.7  681.9  681.7
   20.0  26480  -48.1  -82.1      1   0.02     15      4  688.2  688.4  688.2
   19.2  26749  -48.3  -82.3      1   0.02      3      1  695.6  695.9  695.6
   19.0  26822  -48.2  -82.2      1   0.02      0      0  698.1  698.4  698.1
   17.3  27432  -47.5  -81.8      1   0.03    300      4  719.1  719.5  719.1
   13.7  28986  -45.5  -80.5      1   0.05    208      9  775.6  776.1  775.6
   12.7  29494  -43.3  -79.3      1   0.06    178     11  800.2  800.9  800.3
   11.3  30281  -43.3  -79.3      1   0.07    132     13  827.4  828.2  827.4
   11.0  30480  -42.5  -78.7      1   0.07    120     14  837.3  838.2  837.4
   10.0  31110  -39.9  -76.9      1   0.11    180     10  869.5  870.9  869.5
   10.0  31090  -40.0  -77.0      1   0.11    170     10  868.4  869.8  868.5
    9.9  31179  -39.5  -76.5      1   0.12                873.5  875.0  873.5
</PRE><H3>Station information and sounding indices</H3><PRE>
                         Station identifier: DDC
                             Station number: 72451
                           Observation time: 120510/1200
                           Station latitude: 37.77
                          Station longitude: -99.97
                          Station elevation: 790.0
                            Showalter index: 5.57
                               Lifted index: 7.04
    LIFT computed using virtual temperature: 6.89
                                SWEAT index: 68.01
                                    K index: 14.90
                         Cross totals index: 10.50
                      Vertical totals index: 30.50
                        Totals totals index: 41.00
      Convective Available Potential Energy: 0.00
             CAPE using virtual temperature: 0.00
                      Convective Inhibition: 0.00
             CINS using virtual temperature: 0.00
                     Bulk Richardson Number: 0.00
          Bulk Richardson Number using CAPV: 0.00
  Temp [K] of the Lifted Condensation Level: 271.15
Pres [hPa] of the Lifted Condensation Level: 707.65
     Mean mixed layer potential temperature: 299.34
              Mean mixed layer mixing ratio: 4.71
              1000 hPa to 500 hPa thickness: 5672.00
Precipitable water [mm] for entire sounding: 9.82
</PRE>
<P>Description of the 
<A HREF="/upperair/columns.html">data columns</A>
or <A HREF="/upperair/indices.html">sounding indices</A>.

<P>
<FORM>
<INPUT CLASS="button" TYPE="button" VALUE=" Close this window " 
 onClick="window.close();">
<INPUT CLASS="button" TYPE="button" VALUE=" Select another map " 
 onClick="window.blur();">
</FORM>
<HR SIZE="1">
<I>Interested in studying meteorology?  Check out our 
<a href="http://www-das.uwyo.edu/new_students/"
target=_top>
graduate program</a> or undergraduate degree in 
<a href="http://www.uwyo.edu/ess/" target="_top">
Earth System Science</a>.</I>
<HR SIZE="1"><FONT SIZE="-1">
Questions about the weather data provided by this site can be
addressed to <A HREF="mailto:ldoolman@uwyo.edu">
Larry Oolman (ldoolman@uwyo.edu)</A></FONT>
<HR SIZE="1">
<SCRIPT TYPE="text/javascript">
<!--
window.focus();
// -->
</SCRIPT>
</BODY>
</HTML>
