<HTML>
<TITLE>University of Wyoming - Radiosonde Data</TITLE>
<LINK REL="StyleSheet" HREF="/resources/select.css" TYPE="text/css">
<BODY BGCOLOR="white">
<H2>72469 DNR Denver Observations at 00Z 30 Mar 2012</H2>
<PRE>
-----------------------------------------------------------------------------
   PRES   HGHT   TEMP   DWPT   RELH   MIXR   DRCT   SKNT   THTA   THTE   THTV
    hPa     m      C      C      %    g/kg    deg   knot     K      K      K 
-----------------------------------------------------------------------------
 1000.0     26                                                               
  925.0    706                                                               
  850.0   1433                                                               
  832.0   1625   21.2  -10.8     11   2.03     70      5  310.2  317.0  310.6
  825.0   1697   19.0   -8.0     15   2.55     63      5  308.7  317.0  309.1
  818.0   1769   18.2   -8.8     15   2.41     56      5  308.6  316.5  309.0
  812.1   1829   17.6   -9.0     15   2.39     50      5  308.6  316.4  309.0
  782.8   2134   14.7  -10.0     17   2.29     95      7  308.7  316.2  309.1
  754.7   2438   11.8  -11.1     19   2.19     90      5  308.8  316.0  309.2
  727.4   2743    8.9  -12.1     21   2.09    175      4  308.9  315.8  309.2
  701.2   3048    5.9  -13.2     24   1.99    155      1  308.9  315.5  309.2
  700.0   3062    5.8  -13.2     24   1.99    140      1  308.9  315.5  309.2
  688.0   3203    4.4  -14.6     24   1.80    157      4  308.9  314.9  309.2
  649.7   3658    0.5  -16.8     26   1.59    215     12  309.5  314.8  309.8
  625.4   3962   -2.2  -18.3     28   1.46    230     16  309.9  314.8  310.1
  601.8   4267   -4.8  -19.7     30   1.34    230     22  310.2  314.8  310.5
  584.0   4506   -6.9  -20.9     32   1.24    236     22  310.5  314.7  310.7
  556.4   4877  -10.4  -21.6     39   1.23    245     23  310.6  314.8  310.8
  534.7   5182  -13.4  -22.2     47   1.21    245     22  310.7  314.8  310.9
  518.0   5425  -15.7  -22.7     55   1.20    259     25  310.7  314.8  310.9
  508.0   5571  -16.9  -23.9     55   1.10    268     27  311.0  314.8  311.2
  503.0   5645  -17.1  -26.1     46   0.91    272     27  311.6  314.8  311.8
  500.0   5690  -17.5  -27.5     41   0.80    275     28  311.6  314.5  311.8
  493.3   5791  -18.1  -30.0     34   0.64    285     30  312.1  314.4  312.3
  473.6   6096  -19.8  -37.7     19   0.32    290     25  313.7  314.9  313.8
  470.0   6153  -20.1  -39.1     17   0.28    290     24  314.0  315.0  314.0
  435.8   6706  -24.5  -47.7     10   0.12    285     18  315.3  315.8  315.3
  415.0   7065  -27.3  -53.3      7   0.06    297     22  316.1  316.4  316.1
  400.8   7315  -29.8  -53.9      8   0.06    305     25  316.1  316.3  316.1
  400.0   7330  -29.9  -53.9      8   0.06    305     25  316.1  316.3  316.1
  383.7   7620  -32.5  -55.7      8   0.05    305     26  316.4  316.6  316.4
  347.0   8320  -38.9  -59.9      9   0.03    301     31  317.0  317.1  317.0
  336.2   8534  -40.2  -61.7      8   0.03    300     33  318.0  318.1  318.0
  322.0   8827  -42.1  -64.1      7   0.02    302     36  319.4  319.5  319.4
  307.1   9144  -44.8  -66.1      7   0.02    305     40  320.0  320.1  320.0
  300.0   9300  -46.1  -67.1      7   0.02    310     41  320.3  320.3  320.3
  267.1  10058  -52.6  -70.4     10   0.01    320     52  321.6  321.6  321.6
  250.0  10490  -56.3  -72.3     12   0.01    315     39  322.2  322.3  322.2
  243.1  10668  -58.0  -73.2     13   0.01    315     38  322.2  322.3  322.2
  242.0  10696  -58.3  -73.3     13   0.01    315     38  322.2  322.3  322.2
  221.0  11263  -62.7  -76.7     14   0.01    305     45  323.9  324.0  323.9
  220.5  11278  -62.6  -76.7     14   0.01    305     46  324.2  324.3  324.2
  217.0  11376  -62.3  -76.3     14   0.01    303     43  326.2  326.3  326.3
  213.0  11493  -57.9  -72.9     13   0.01    301     40  334.8  334.9  334.8
  208.0  11643  -57.9  -72.9     13   0.01    299     36  337.1  337.2  337.1
  200.1  11887  -59.7  -74.7     13   0.01    295     29  338.1  338.1  338.1
  200.0  11890  -59.7  -74.7     12   0.01    285     29  338.1  338.1  338.1
  198.0  11953  -59.9  -74.9     12   0.01    284     29  338.7  338.8  338.7
  194.0  12080  -60.1  -75.1     12   0.01    282     30  340.4  340.4  340.4
  192.0  12144  -59.7  -74.7     12   0.01    281     31  342.0  342.1  342.0
  189.0  12243  -57.3  -73.3     11   0.01    279     32  347.4  347.5  347.4
  185.0  12378  -56.7  -72.7     12   0.01    277     33  350.5  350.6  350.5
  182.0  12482  -55.1  -72.1     10   0.01    275     34  354.8  354.9  354.8
  174.0  12768  -55.3  -72.3     10   0.01    271     36  359.0  359.1  359.0
  173.1  12802  -55.2  -72.4     10   0.01    270     36  359.8  359.9  359.8
  170.0  12917  -54.7  -72.7      9   0.01    278     31  362.4  362.5  362.4
  165.0  13106  -55.4  -73.2      9   0.01    290     22  364.3  364.4  364.3
  150.0  13710  -57.7  -74.7     10   0.01    250     25  370.5  370.5  370.5
  141.0  14099  -59.1  -75.1     11   0.01    251     30  374.6  374.7  374.6
  133.0  14467  -58.1  -75.1     10   0.01    252     34  382.7  382.8  382.7
  124.0  14906  -60.1  -76.1     11   0.01    254     39  386.8  386.9  386.8
  122.0  15008  -58.9  -75.9      9   0.01    254     40  390.8  390.9  390.8
  117.6  15240  -59.8  -75.9     11   0.01    255     43  393.3  393.4  393.3
  117.0  15270  -59.9  -75.9     11   0.01    255     43  393.7  393.7  393.7
  109.0  15713  -59.1  -76.1      9   0.01    250     42  403.2  403.3  403.2
  102.0  16127  -61.5  -77.5     10   0.01    246     41  406.3  406.4  406.3
  100.0  16250  -61.1  -77.1     10   0.01    245     41  409.4  409.5  409.4
</PRE><H3>Station information and sounding indices</H3><PRE>
                         Station identifier: DNR
                             Station number: 72469
                           Observation time: 120330/0000
                           Station latitude: 39.75
                          Station longitude: -104.87
                          Station elevation: 1625.0
                               Lifted index: 0.96
    LIFT computed using virtual temperature: 0.80
      Convective Available Potential Energy: 0.00
             CAPE using virtual temperature: 0.00
                      Convective Inhibition: 0.00
             CINS using virtual temperature: 0.00
                     Bulk Richardson Number: 0.00
          Bulk Richardson Number using CAPV: 0.00
  Temp [K] of the Lifted Condensation Level: 258.83
Pres [hPa] of the Lifted Condensation Level: 539.53
     Mean mixed layer potential temperature: 308.75
              Mean mixed layer mixing ratio: 2.36
              1000 hPa to 500 hPa thickness: 5664.00
Precipitable water [mm] for entire sounding: 6.16
</PRE>
<P>Description of the 
<A HREF="/upperair/columns.html">data columns</A>
or <A HREF="/upperair/indices.html">sounding indices</A>.

<P>
<FORM>
<INPUT CLASS="button" TYPE="button" VALUE=" Close this window " 
 onClick="window.close();">
<INPUT CLASS="button" TYPE="button" VALUE=" Select another map " 
 onClick="window.blur();">
</FORM>
<HR SIZE="1">
<I>Interested in studying meteorology?  Check out our 
<a href="http://www-das.uwyo.edu/new_students/"
target=_top>
graduate program</a> or undergraduate degree in 
<a href="http://www.uwyo.edu/ess/" target="_top">
Earth System Science</a>.</I>
<HR SIZE="1"><FONT SIZE="-1">
Questions about the weather data provided by this site can be
addressed to <A HREF="mailto:ldoolman@uwyo.edu">
Larry Oolman (ldoolman@uwyo.edu)</A></FONT>
<HR SIZE="1">
<SCRIPT TYPE="text/javascript">
<!--
window.focus();
// -->
</SCRIPT>
</BODY>
</HTML>
